ipss.plugin.test/testData/psse/v30/EQ0907_out1.txt
     PTI INTERACTIVE POWER SYSTEM SIMULATOR--PSS/E      MON, NOV 02 2009  22:35
PSS/E LOADFLOW RAW FILE                                                  RATING
CONVERTED FROM BPA FORMAT                                                 SET A

BUS  10002 GZ-HLZ      220.00 CKT     MW     MVAR     MVA  %I 1.0445PU  -47.34  X--- LOSSES ---X X---- AREA -----X X---- ZONE -----X  10002
                                                              229.79KV               MW     MVAR    1 GD              2 XX
BUS      1 UNO-U1      13.800 CKT     MW     MVAR     MVA  %I 1.0000PU    0.00  X--- LOSSES ---X X---- AREA -----X X---- ZONE -----X      1
                                                              13.800KV               MW     MVAR    1                 0   

 TO LOAD-PQ                       -1656.4  -114.9  1660.4
 TO  10234 BEIJIAO     220.00  1   1656.4   114.9  1660.4     1.0000LK              0.00    5.05    1 GD              2 XX

BUS  10004 ZQ-HLZ      525.00 CKT     MW     MVAR     MVA  %I 1.0113PU  -40.91  X--- LOSSES ---X X---- AREA -----X X---- ZONE -----X  10004
                                                              530.92KV               MW     MVAR    1 GD              4 N2
 TO LOAD-PQ                       -2820.0  -429.6  2852.5
 TO  10005 DCZQ=       500.00  1   2820.0   429.6  2852.5     0.9524UN              0.00   14.43    1 GD              4 N2

BUS  10005 DCZQ=       500.00 CKT     MW     MVAR     MVA  %I 1.0611PU  -41.19  X--- LOSSES ---X X---- AREA -----X X---- ZONE -----X  10005
                                                              530.53KV               MW     MVAR    1 GD              4 N2
 TO  10004 ZQ-HLZ      525.00  1  -2820.0  -415.2  2850.4     1.0000LK              0.00   14.43    1 GD              4 N2
 TO  10216 YANDU=      500.00  1   1410.0   207.6  1425.2  27                       0.00    3.61    1 GD              2 XX
 TO  10216 YANDU=      500.00  2   1410.0   207.6  1425.2  27                       0.00    3.61    1 GD              2 XX

BUS  10007 BA-HLZ      525.00 CKT     MW     MVAR     MVA  %I 1.0059PU  -47.93  X--- LOSSES ---X X---- AREA -----X X---- ZONE -----X  10007
                                                              528.12KV               MW     MVAR    1 GD              4 N2
 TO LOAD-PQ                       -2781.3  -408.8  2811.2
 TO  10560 BAOAN=      500.00  1   2781.3   408.8  2811.2     0.9524LK              0.00   14.17    1 GD              2 XX

BUS  10011 DCHZ=       500.00 CKT     MW     MVAR     MVA  %I 1.0673PU  -44.37  X--- LOSSES ---X X---- AREA -----X X---- ZONE -----X  10011
                                                              533.67KV               MW     MVAR    1 GD              4 N2
 TO  10222 BOLUO=      500.00  1   1589.5    81.9  1591.6  30                       2.22    6.67    1 GD              2 XX
 TO  10222 BOLUO=      500.00  2   1210.5   155.7  1220.5  23                       1.31    5.23    1 GD              2 XX
 TO  80010 HUIZ-HLZ    525.00  1  -2800.0  -237.6  2810.1     1.0000UN              0.00   13.86    1 GD              4 N2

BUS  10013 GD01-HLZ    525.00 CKT     MW     MVAR     MVA  %I 1.0029PU  -46.95  X--- LOSSES ---X X---- AREA -----X X---- ZONE -----X  10013
                                                              526.52KV               MW     MVAR    1 GD              4 N2
 TO  10211 DCSUID=     500.00  1      0.0     0.0     0.0     0.9524UN              0.00    0.00    1 GD              4 N2
 TO  10211 DCSUID=     500.00  2      0.0     0.0     0.0     0.9524UN              0.00    0.00    1 GD              4 N2
 TO  10211 DCSUID=     500.00  3      0.0     0.0     0.0     0.9524UN              0.00    0.00    1 GD              4 N2

BUS  10014 LUODON50    525.00 CKT     MW     MVAR     MVA  %I 0.9922PU  -42.94  X--- LOSSES ---X X---- AREA -----X X---- ZONE -----X  10014
                                                              520.90KV               MW     MVAR    1 GD              4 N2
 TO SHUNT                             0.0   484.3   484.3
 TO  10213 LUODONG=    500.00  1   3438.4  -717.2  3512.4     0.9524LK              0.00   22.73    1 GD              2 XX
 TO  30072 WUZHO50     525.00  1   -910.8    86.9   915.0  40                      18.49  199.82    3 GX             12 N1
 TO  30072 WUZHO50     525.00  2   -910.8    77.9   914.2  40                      18.49  199.82    3 GX             12 N1
 TO  30089 HEZHOU50    525.00  1   -808.4    34.0   809.1  30                      14.59  204.23    3 GX             12 N1
 TO  30089 HEZHOU50    525.00  2   -808.4    34.0   809.1  30                      14.59  204.23    3 GX             12 N1

BUS  10015 MAOMIN50    525.00 CKT     MW     MVAR     MVA  %I 0.9937PU  -31.52  X--- LOSSES ---X X---- AREA -----X X---- ZONE -----X  10015
                                                              521.69KV               MW     MVAR    1 GD              4 N2
 TO  10230 MAOMING=    500.00  1   2148.6  -333.6  2174.4     0.9524LK              0.00    8.69    1 GD              2 XX
 TO  30082 YULIN50     525.00  1  -1074.3   166.8  1087.2  40                      15.92  173.84    3 GX             12 N1
 TO  30082 YULIN50     525.00  2  -1074.3   166.8  1087.2  40                      15.92  173.84    3 GX             12 N1

BUS  10016 XIANLS50    525.00 CKT     MW     MVAR     MVA  %I 0.9936PU  -35.28  X--- LOSSES ---X X---- AREA -----X X---- ZONE -----X  10016
                                                              521.65KV               MW     MVAR    1 GD              4 N2
 TO SHUNT                             0.0   377.1   377.1
 TO  10212 XIANLS=     500.00  1   2217.1  -279.0  2234.6     0.9524LK              0.00    9.18    1 GD              2 XX
 TO  30097 GUILIN52    525.00  1  -1108.6   -49.1  1109.7  32                      24.28  305.36    3 GX             12 N1
 TO  30097 GUILIN52    525.00  2  -1108.6   -49.1  1109.7  32                      24.28  305.36    3 GX             12 N1
     PTI INTERACTIVE POWER SYSTEM SIMULATOR--PSS/E      MON, NOV 02 2009  22:35
PSS/E LOADFLOW RAW FILE                                                  RATING
CONVERTED FROM BPA FORMAT                                                 SET A

BUS  10022 GANGCH50    525.00 CKT     MW     MVAR     MVA  %I 1.0028PU  -31.99  X--- LOSSES ---X X---- AREA -----X X---- ZONE -----X  10022
                                                              526.50KV               MW     MVAR    1 GD              2 XX
 TO LOAD-PQ                           0.0  -104.0   104.0
 TO  10231 GANGCHE=    500.00  1      0.0   104.0   104.0     0.9524LK              0.00    0.02    1 GD              2 XX

BUS  10159 NPS3        26.000 CKT     MW     MVAR     MVA  %I 1.0150PU  -39.49  X--- LOSSES ---X X---- AREA -----X X---- ZONE -----X  10159
 FROM GENERATION                    980.0   104.6R  985.6 986 26.390KV               MW     MVAR    1 GD             19 50
 TO LOAD-PQ                          35.0    20.0    40.3
 TO  10192 LINGAO=     500.00  1    945.0    84.6   948.8  82 1.0000LK              1.05  114.11    1 GD              2 XX

BUS  10160 NPS4        26.000 CKT     MW     MVAR     MVA  %I 1.0150PU  -39.49  X--- LOSSES ---X X---- AREA -----X X---- ZONE -----X  10160
 FROM GENERATION                    980.0   104.6R  985.6 986 26.390KV               MW     MVAR    1 GD             19 50
 TO LOAD-PQ                          35.0    20.0    40.3
 TO  10192 LINGAO=     500.00  1    945.0    84.6   948.8  82 1.0000LK              1.05  114.11    1 GD              2 XX

BUS  10161 SJA4        20.000 CKT     MW     MVAR     MVA  %I 1.0150PU  -40.10  X--- LOSSES ---X X---- AREA -----X X---- ZONE -----X  10161
 FROM GENERATION                    300.0    44.5R  303.3 303 20.300KV               MW     MVAR    1 GD             19 50
 TO LOAD-PQ                          15.0     8.0    17.0
 TO  10193 SHAJIAC=    500.00  1    285.0    36.5   287.3  79 1.0000LK              0.00   30.72    1 GD              2 XX

BUS  10162 SJA5        20.000 CKT     MW     MVAR     MVA  %I 1.0150PU  -40.10  X--- LOSSES ---X X---- AREA -----X X---- ZONE -----X  10162
 FROM GENERATION                    300.0    44.5R  303.3 303 20.300KV               MW     MVAR    1 GD             19 50
 TO LOAD-PQ                          15.0     8.0    17.0
 TO  10193 SHAJIAC=    500.00  1    285.0    36.5   287.3  79 1.0000LK              0.00   30.72    1 GD              2 XX

BUS  10163 SJB1        19.000 CKT     MW     MVAR     MVA  %I 1.0150PU  -44.01  X--- LOSSES ---X X---- AREA -----X X---- ZONE -----X  10163
 FROM GENERATION                    125.2    66.3R  141.7 142 19.285KV               MW     MVAR    1 GD             19 50
 TO LOAD-PQ                          15.0     7.0    16.6
 TO  10194 SHAJIAB=    500.00  1    110.2    59.3   125.1  30 1.0000LK              0.09    5.53    1 GD              2 XX

BUS  10164 SJB2        19.000 CKT     MW     MVAR     MVA  %I 1.0150PU  -40.39  X--- LOSSES ---X X---- AREA -----X X---- ZONE -----X  10164
 FROM GENERATION                    300.0    75.9R  309.4 309 19.285KV               MW     MVAR    1 GD             19 50
 TO LOAD-PQ                          15.0     7.0    16.6
 TO  10194 SHAJIAB=    500.00  1    285.0    68.9   293.2  70 1.0000LK              0.50   30.37    1 GD              2 XX

BUS  10165 SJC1        19.000 CKT     MW     MVAR     MVA  %I 1.0050PU  -39.03  X--- LOSSES ---X X---- AREA -----X X---- ZONE -----X  10165
 FROM GENERATION                    600.0    34.4R  601.0 601 19.095KV               MW     MVAR    1 GD             19 50
 TO LOAD-PQ                          28.0    15.0    31.8
 TO  10193 SHAJIAC=    500.00  1    572.0    19.4   572.3  80 1.0000LK              0.97   72.03    1 GD              2 XX

BUS  10166 SJC2        19.000 CKT     MW     MVAR     MVA  %I 1.0050PU  -39.06  X--- LOSSES ---X X---- AREA -----X X---- ZONE -----X  10166
 FROM GENERATION                    600.0    16.8R  600.2 600 19.095KV               MW     MVAR    1 GD             19 50
 TO LOAD-PQ                          28.0    15.0    31.8
 TO  10193 SHAJIAC=    500.00  1    572.0     1.8   572.0  79 1.0000LK              0.97   71.95    1 GD              2 XX

BUS  10167 SJC3        19.000 CKT     MW     MVAR     MVA  %I 1.0050PU  -39.03  X--- LOSSES ---X X---- AREA -----X X---- ZONE -----X  10167
 FROM GENERATION                    600.0    34.4R  601.0 601 19.095KV               MW     MVAR    1 GD             19 50
 TO LOAD-PQ                          28.0    15.0    31.8
 TO  10193 SHAJIAC=    500.00  1    572.0    19.4   572.3  80 1.0000LK              0.97   72.03    1 GD              2 XX

BUS  10168 PSS1        18.000 CKT     MW     MVAR     MVA  %I 1.0250PU  -35.83  X--- LOSSES ---X X---- AREA -----X X---- ZONE -----X  10168
 FROM GENERATION                    300.0    49.2R  304.0 304 18.450KV               MW     MVAR    1 GD             19 50
 TO LOAD-PQ                          12.0     8.0    14.4
 TO  10195 XUNENG1=    500.00  1    288.0    41.2   290.9  83 1.0000LK              0.59   33.79    1 GD              2 XX
     PTI INTERACTIVE POWER SYSTEM SIMULATOR--PSS/E      MON, NOV 02 2009  22:35
PSS/E LOADFLOW RAW FILE                                                  RATING
CONVERTED FROM BPA FORMAT                                                 SET A

BUS  10169 PSS2        18.000 CKT     MW     MVAR     MVA  %I 1.0250PU  -35.83  X--- LOSSES ---X X---- AREA -----X X---- ZONE -----X  10169
 FROM GENERATION                    300.0    49.2R  304.0 304 18.450KV               MW     MVAR    1 GD             19 50
 TO LOAD-PQ                          12.0     8.0    14.4
 TO  10195 XUNENG1=    500.00  1    288.0    41.2   290.9  83 1.0000LK              0.59   33.79    1 GD              2 XX

BUS  10170 PSS3        18.000 CKT     MW     MVAR     MVA  %I 1.0250PU  -35.83  X--- LOSSES ---X X---- AREA -----X X---- ZONE -----X  10170
 FROM GENERATION                    300.0    49.2R  304.0 304 18.450KV               MW     MVAR    1 GD             19 50
 TO LOAD-PQ                          12.0     8.0    14.4
 TO  10195 XUNENG1=    500.00  1    288.0    41.2   290.9  83 1.0000LK              0.59   33.79    1 GD              2 XX

BUS  10171 PSS4        18.000 CKT     MW     MVAR     MVA  %I 1.0380PU  -35.92  X--- LOSSES ---X X---- AREA -----X X---- ZONE -----X  10171
 FROM GENERATION                    300.0    81.4R  310.9 311 18.684KV               MW     MVAR    1 GD             19 50
 TO LOAD-PQ                          12.0     8.0    14.4
 TO  10195 XUNENG1=    500.00  1    288.0    73.4   297.2  84 1.0000LK              0.60   34.39    1 GD              2 XX

BUS  10172 PSS6        18.000 CKT     MW     MVAR     MVA  %I 1.0250PU  -35.91  X--- LOSSES ---X X---- AREA -----X X---- ZONE -----X  10172
 FROM GENERATION                    300.0    49.3R  304.0 304 18.450KV               MW     MVAR    1 GD             19 50
 TO LOAD-PQ                          12.0     8.0    14.4
 TO  10196 XUNENG2=    500.00  1    288.0    41.3   290.9  83 1.0000LK              0.59   33.79    1 GD              2 XX

BUS  10173 PSS7        18.000 CKT     MW     MVAR     MVA  %I 1.0250PU  -35.91  X--- LOSSES ---X X---- AREA -----X X---- ZONE -----X  10173
 FROM GENERATION                    300.0    49.3R  304.0 304 18.450KV               MW     MVAR    1 GD             19 50
 TO LOAD-PQ                          12.0     8.0    14.4
 TO  10196 XUNENG2=    500.00  1    288.0    41.3   290.9  83 1.0000LK              0.59   33.79    1 GD              2 XX

BUS  10174 PSS8        18.000 CKT     MW     MVAR     MVA  %I 1.0250PU  -35.91  X--- LOSSES ---X X---- AREA -----X X---- ZONE -----X  10174
 FROM GENERATION                    300.0    49.3R  304.0 304 18.450KV               MW     MVAR    1 GD             19 50
 TO LOAD-PQ                          12.0     8.0    14.4
 TO  10196 XUNENG2=    500.00  1    288.0    41.3   290.9  83 1.0000LK              0.59   33.79    1 GD              2 XX

BUS  10175 HZX2        18.000 CKT     MW     MVAR     MVA  %I 1.0350PU  -41.04  X--- LOSSES ---X X---- AREA -----X X---- ZONE -----X  10175
 FROM GENERATION                    200.0    49.4R  206.0 206 18.630KV               MW     MVAR    1 GD             19 50
 TO LOAD-PQ                          12.0     8.0    14.4
 TO  10197 HZXUNEN=    500.00  1    188.0    41.4   192.5  55 1.0000LK              0.25   14.51    1 GD              2 XX

BUS  10176 ZUH3        20.000 CKT     MW     MVAR     MVA  %I 1.0013PU  -37.34  X--- LOSSES ---X X---- AREA -----X X---- ZONE -----X  10176
 FROM GENERATION                    550.0    60.0L  553.3 553 20.025KV               MW     MVAR    1 GD             19 50
 TO LOAD-PQ                          30.0    18.0    35.0
 TO  10198 ZHUHAIB=    500.00  1    520.0    42.0   521.7  72 1.0000LK              0.57   58.21    1 GD              2 XX

BUS  10177 ZUH4        20.000 CKT     MW     MVAR     MVA  %I 1.0013PU  -37.34  X--- LOSSES ---X X---- AREA -----X X---- ZONE -----X  10177
 FROM GENERATION                    550.0    60.0L  553.3 553 20.025KV               MW     MVAR    1 GD             19 50
 TO LOAD-PQ                          30.0    18.0    35.0
 TO  10198 ZHUHAIB=    500.00  1    520.0    42.0   521.7  72 1.0000LK              0.57   58.21    1 GD              2 XX

BUS  10178 TOG3        20.000 CKT     MW     MVAR     MVA  %I 1.0000PU  -35.13  X--- LOSSES ---X X---- AREA -----X X---- ZONE -----X  10178
 FROM GENERATION                    555.0    53.2R  557.5 558 20.000KV               MW     MVAR    1 GD             19 50
 TO LOAD-PQ                          30.0    18.0    35.0
 TO  10199 TONGGU=     500.00  1    525.0    35.2   526.2  73 1.0000LK              0.72   59.44    1 GD              2 XX

BUS  10179 TOG4        20.000 CKT     MW     MVAR     MVA  %I 1.0000PU  -35.13  X--- LOSSES ---X X---- AREA -----X X---- ZONE -----X  10179
 FROM GENERATION                    555.0    53.2R  557.5 558 20.000KV               MW     MVAR    1 GD             19 50
 TO LOAD-PQ                          30.0    18.0    35.0
 TO  10199 TONGGU=     500.00  1    525.0    35.2   526.2  73 1.0000LK              0.72   59.44    1 GD              2 XX
     PTI INTERACTIVE POWER SYSTEM SIMULATOR--PSS/E      MON, NOV 02 2009  22:35
PSS/E LOADFLOW RAW FILE                                                  RATING
CONVERTED FROM BPA FORMAT                                                 SET A

BUS  10180 TOG5        20.000 CKT     MW     MVAR     MVA  %I 1.0000PU  -35.13  X--- LOSSES ---X X---- AREA -----X X---- ZONE -----X  10180
 FROM GENERATION                    555.0    53.2R  557.5 558 20.000KV               MW     MVAR    1 GD             19 50
 TO LOAD-PQ                          30.0    18.0    35.0
 TO  10199 TONGGU=     500.00  1    525.0    35.2   526.2  73 1.0000LK              0.72   59.44    1 GD              2 XX

BUS  10181 LYJ1        20.000 CKT     MW     MVAR     MVA  %I 1.0060PU  -24.24  X--- LOSSES ---X X---- AREA -----X X---- ZONE -----X  10181
 FROM GENERATION                    250.0   100.0H  269.3 269 20.120KV               MW     MVAR    1 GD             19 50
 TO LOAD-PQ                          15.0     8.0    17.0
 TO  10200 LIYUJIA=    500.00  1    235.0    92.0   252.4  68 1.0000LK              0.36   24.83    1 GD              2 XX

BUS  10182 LYJ2        20.000 CKT     MW     MVAR     MVA  %I 1.0060PU  -24.24  X--- LOSSES ---X X---- AREA -----X X---- ZONE -----X  10182
 FROM GENERATION                    250.0   100.0H  269.3 269 20.120KV               MW     MVAR    1 GD             19 50
 TO LOAD-PQ                          15.0     8.0    17.0
 TO  10200 LIYUJIA=    500.00  1    235.0    92.0   252.4  68 1.0000LK              0.36   24.83    1 GD              2 XX

BUS  10183 QIAOK1      22.000 CKT     MW     MVAR     MVA  %I 1.0200PU  -23.16  X--- LOSSES ---X X---- AREA -----X X---- ZONE -----X  10183
 FROM GENERATION                    600.0    57.4R  602.7 603 22.440KV               MW     MVAR    1 GD             19 50
 TO LOAD-PQ                          30.0    18.0    35.0
 TO  10201 QIAOKOU=    500.00  1    570.0    39.4   571.4  78 1.0000LK              0.00   65.01    1 GD              2 XX

BUS  10184 QIAOK2      22.000 CKT     MW     MVAR     MVA  %I 1.0205PU  -23.16  X--- LOSSES ---X X---- AREA -----X X---- ZONE -----X  10184
 FROM GENERATION                    600.0    60.0L  603.0 603 22.452KV               MW     MVAR    1 GD             19 50
 TO LOAD-PQ                          30.0    18.0    35.0
 TO  10201 QIAOKOU=    500.00  1    570.0    42.0   571.5  78 1.0000LK              0.00   64.99    1 GD              2 XX

BUS  10185 YAX1        20.000 CKT     MW     MVAR     MVA  %I 1.0080PU  -32.85  X--- LOSSES ---X X---- AREA -----X X---- ZONE -----X  10185
 FROM GENERATION                    500.0    32.3R  501.0 501 20.160KV               MW     MVAR    1 GD              2 XX
 TO LOAD-PQ                          36.0    10.8    37.6
 TO  10203 YANGXI=     500.00  1    464.0    21.5   464.5  64 1.0000LK              0.00   44.00    1 GD              2 XX

BUS  10186 HOHW1       22.000 CKT     MW     MVAR     MVA  %I 1.0052PU  -32.76  X--- LOSSES ---X X---- AREA -----X X---- ZONE -----X  10186
 FROM GENERATION                    520.0     0.0L  520.0 520 22.114KV               MW     MVAR    1 GD             19 50
 TO LOAD-PQ                          30.0    18.0    35.0
 TO  10204 HONGHAW=    500.00  1    490.0   -18.0   490.3  68 1.0000LK              0.00   48.59    1 GD              2 XX

BUS  10187 HOHW2       22.000 CKT     MW     MVAR     MVA  %I 1.0052PU  -32.76  X--- LOSSES ---X X---- AREA -----X X---- ZONE -----X  10187
 FROM GENERATION                    520.0     0.0L  520.0 520 22.114KV               MW     MVAR    1 GD             19 50
 TO LOAD-PQ                          30.0    18.0    35.0
 TO  10204 HONGHAW=    500.00  1    490.0   -18.0   490.3  68 1.0000LK              0.00   48.59    1 GD              2 XX

BUS  10188 HAIM1       27.000 CKT     MW     MVAR     MVA  %I 1.0200PU  -27.85  X--- LOSSES ---X X---- AREA -----X X---- ZONE -----X  10188
 FROM GENERATION                    850.0    86.6R  854.4 854 27.540KV               MW     MVAR    1 GD              2 XX
 TO LOAD-PQ                          60.0    30.0    67.1
 TO  10205 HAIMEN=     500.00  1    790.0    56.6   792.0  66 1.0000LK              1.03   79.89    1 GD              2 XX

BUS  10189 HSYB1       20.000 CKT     MW     MVAR     MVA  %I 1.0046PU  -26.88  X--- LOSSES ---X X---- AREA -----X X---- ZONE -----X  10189
 FROM GENERATION                    280.0     0.0L  280.0 280 20.093KV               MW     MVAR    1 GD             19 50
 TO LOAD-PQ                          15.0     8.0    17.0
 TO  10206 HESHUYB=    500.00  1    265.0    -8.0   265.1  71 1.0000LK              0.44   26.35    1 GD              2 XX

BUS  10190 HSYB2       20.000 CKT     MW     MVAR     MVA  %I 1.0046PU  -26.88  X--- LOSSES ---X X---- AREA -----X X---- ZONE -----X  10190
 FROM GENERATION                    280.0     0.0L  280.0 280 20.093KV               MW     MVAR    1 GD             19 50
 TO LOAD-PQ                          15.0     8.0    17.0
 TO  10206 HESHUYB=    500.00  1    265.0    -8.0   265.1  71 1.0000LK              0.44   26.35    1 GD              2 XX
     PTI INTERACTIVE POWER SYSTEM SIMULATOR--PSS/E      MON, NOV 02 2009  22:35
PSS/E LOADFLOW RAW FILE                                                  RATING
CONVERTED FROM BPA FORMAT                                                 SET A

BUS  10192 LINGAO=     500.00 CKT     MW     MVAR     MVA  %I 1.0608PU  -46.40  X--- LOSSES ---X X---- AREA -----X X---- ZONE -----X  10192
                                                              530.42KV               MW     MVAR    1 GD              2 XX
 TO  10159 NPS3        26.000  1   -944.0    29.5   944.4  79 1.0500UN              1.05  114.11    1 GD             19 50
 TO  10160 NPS4        26.000  1   -944.0    29.5   944.4  79 1.0500UN              1.05  114.11    1 GD             19 50
 TO  10535 SHENZHE=    500.00  1    624.4    62.2   627.5  24                       1.41   16.95    1 GD              2 XX
 TO  10535 SHENZHE=    500.00  2    651.8    34.9   652.7  25                       2.28   17.51    1 GD              2 XX
 TO  10554 KUNPENG=    500.00  1    302.3   -77.0   312.0  12                       0.34    3.53    1 GD              2 XX
 TO  10554 KUNPENG=    500.00  2    309.5   -79.1   319.4  12                       0.35    3.61    1 GD              2 XX

BUS  10193 SHAJIAC=    500.00 CKT     MW     MVAR     MVA  %I 1.0573PU  -46.24  X--- LOSSES ---X X---- AREA -----X X---- ZONE -----X  10193
                                                              528.66KV               MW     MVAR    1 GD              2 XX
 TO  10161 SJA4        20.000  1   -285.0    -5.8   285.1  75 1.0500UN              0.00   30.72    1 GD             19 50
 TO  10162 SJA5        20.000  1   -285.0    -5.8   285.1  75 1.0500UN              0.00   30.72    1 GD             19 50
 TO  10165 SJC1        19.000  1   -571.0    52.7   573.5  76 1.0500UN              0.97   72.03    1 GD             19 50
 TO  10166 SJC2        19.000  1   -571.0    70.1   575.3  76 1.0460UN              0.97   71.95    1 GD             19 50
 TO  10167 SJC3        19.000  1   -571.0    52.7   573.5  76 1.0500UN              0.97   72.03    1 GD             19 50
 TO  10194 SHAJIAB=    500.00  1    320.5   -68.6   327.7  15                       0.00    0.19    1 GD              2 XX
 TO  10209 GUANGNA=    500.00  1    451.3     9.1   451.4  17                       1.10   11.75    1 GD              2 XX
 TO  10543 PENGCHE=    500.00  1    931.8   -26.4   932.1  35                       3.11   34.17    1 GD              2 XX
 TO  10543 PENGCHE=    500.00  2    579.5   -77.9   584.7  22                       3.32   21.13    1 GD              2 XX

BUS  10194 SHAJIAB=    500.00 CKT     MW     MVAR     MVA  %I 1.0575PU  -46.27  X--- LOSSES ---X X---- AREA -----X X---- ZONE -----X  10194
                                                              528.73KV               MW     MVAR    1 GD              2 XX
 TO LOAD-PQ                         281.7    42.2   284.8
 TO  10163 SJB1        19.000  1   -110.1   -53.8   122.5  28 1.0640UN              0.09    5.53    1 GD             19 50
 TO  10164 SJB2        19.000  1   -284.5   -38.5   287.1  66 1.0640UN              0.50   30.37    1 GD             19 50
 TO  10193 SHAJIAC=    500.00  1   -320.5    67.6   327.5  15                       0.00    0.19    1 GD              2 XX
 TO  10209 GUANGNA=    500.00  1    433.4   -17.5   433.7  16                       1.68   10.93    1 GD              2 XX

BUS  10195 XUNENG1=    500.00 CKT     MW     MVAR     MVA  %I 1.0636PU  -42.49  X--- LOSSES ---X X---- AREA -----X X---- ZONE -----X  10195
                                                              531.80KV               MW     MVAR    1 GD              2 XX
 TO  10168 PSS1        18.000  1   -287.4    -7.4   287.5  80 1.0500UN              0.59   33.79    1 GD             19 50
 TO  10169 PSS2        18.000  1   -287.4    -7.4   287.5  80 1.0500UN              0.59   33.79    1 GD             19 50
 TO  10170 PSS3        18.000  1   -287.4    -7.4   287.5  80 1.0500UN              0.59   33.79    1 GD             19 50
 TO  10171 PSS4        18.000  1   -287.4   -39.1   290.0  80 1.0500UN              0.60   34.39    1 GD             19 50
 TO  10196 XUNENG2=    500.00  1    852.8    20.0   853.1  56                       0.00    1.29    1 GD              2 XX
 TO  10233 BEIJIAO=    500.00  1    296.8    41.3   299.6  20                       0.69   10.07    1 GD              2 XX

BUS  10196 XUNENG2=    500.00 CKT     MW     MVAR     MVA  %I 1.0636PU  -42.58  X--- LOSSES ---X X---- AREA -----X X---- ZONE -----X  10196
                                                              531.78KV               MW     MVAR    1 GD              2 XX
 TO  10172 PSS6        18.000  1   -287.4    -7.5   287.5  80 1.0500UN              0.59   33.79    1 GD             19 50
 TO  10173 PSS7        18.000  1   -287.4    -7.5   287.5  80 1.0500UN              0.59   33.79    1 GD             19 50
 TO  10174 PSS8        18.000  1   -287.4    -7.5   287.5  80 1.0500UN              0.59   33.79    1 GD             19 50
 TO  10195 XUNENG1=    500.00  1   -852.8   -19.9   853.1  56                       0.00    1.29    1 GD              2 XX
 TO  10208 ZENGCHE=    500.00  1    886.1    28.4   886.6  40                       7.69   61.54    1 GD              2 XX
 TO  10208 ZENGCHE=    500.00  2    829.0    13.9   829.1  37                       7.94   57.41    1 GD              2 XX

BUS  10197 HZXUNEN=    500.00 CKT     MW     MVAR     MVA  %I 1.0646PU  -45.31  X--- LOSSES ---X X---- AREA -----X X---- ZONE -----X  10197
                                                              532.30KV               MW     MVAR    1 GD              2 XX
 TO  10175 HZX2        18.000  1   -187.7   -26.9   189.7  52 1.0440UN              0.25   14.51    1 GD             19 50
 TO  10218 DONGGUA=    500.00  1    478.7     3.5   478.7  16                       0.61   13.24    1 GD              2 XX
 TO  10218 DONGGUA=    500.00  2    478.7     3.5   478.7  16                       0.61   13.24    1 GD              2 XX
 TO  10222 BOLUO=      500.00  1   -769.6    19.8   769.9  29                       1.05    9.42    1 GD              2 XX
     PTI INTERACTIVE POWER SYSTEM SIMULATOR--PSS/E      MON, NOV 02 2009  22:35
PSS/E LOADFLOW RAW FILE                                                  RATING
CONVERTED FROM BPA FORMAT                                                 SET A

BUS  10198 ZHUHAIB=    500.00 CKT     MW     MVAR     MVA  %I 1.0473PU  -43.75  X--- LOSSES ---X X---- AREA -----X X---- ZONE -----X  10198
                                                              523.64KV               MW     MVAR    1 GD              2 XX
 TO  10176 ZUH3        20.000  1   -519.4    16.2   519.7  69 1.0500UN              0.57   58.21    1 GD             19 50
 TO  10177 ZUH4        20.000  1   -519.4    16.2   519.7  69 1.0500UN              0.57   58.21    1 GD             19 50
 TO  10232 XIANGSH=    500.00  1    519.4   -16.2   519.7  15                       1.23   20.74    1 GD              2 XX
 TO  10232 XIANGSH=    500.00  2    519.4   -16.2   519.7  15                       1.23   20.74    1 GD              2 XX

BUS  10199 TONGGU=     500.00 CKT     MW     MVAR     MVA  %I 1.0473PU  -41.62  X--- LOSSES ---X X---- AREA -----X X---- ZONE -----X  10199
                                                              523.66KV               MW     MVAR    1 GD              2 XX
 TO  10178 TOG3        20.000  1   -524.3    24.2   524.8  70 1.0500UN              0.72   59.44    1 GD             19 50
 TO  10179 TOG4        20.000  1   -524.3    24.2   524.8  70 1.0500UN              0.72   59.44    1 GD             19 50
 TO  10180 TOG5        20.000  1   -524.3    24.2   524.8  70 1.0500UN              0.72   59.44    1 GD             19 50
 TO  10232 XIANGSH=    500.00  1    786.3   -40.0   787.3  24                       3.95   60.35    1 GD              2 XX
 TO  10232 XIANGSH=    500.00  2    786.5   -32.6   787.2  24                       3.39   60.42    1 GD              2 XX

BUS  10200 LIYUJIA=    500.00 CKT     MW     MVAR     MVA  %I 1.0702PU  -29.64  X--- LOSSES ---X X---- AREA -----X X---- ZONE -----X  10200
                                                              535.11KV               MW     MVAR    1 GD              2 XX
 TO  10181 LYJ1        20.000  1   -234.6   -67.2   244.1  62 1.1000UN              0.36   24.83    1 GD             19 50
 TO  10182 LYJ2        20.000  1   -234.6   -67.2   244.1  62 1.1000UN              0.36   24.83    1 GD             19 50
 TO  10201 QIAOKOU=    500.00  1    469.3   134.3   488.1  22                       0.21    0.42    1 GD              2 XX

BUS  10201 QIAOKOU=    500.00 CKT     MW     MVAR     MVA  %I 1.0695PU  -29.68  X--- LOSSES ---X X---- AREA -----X X---- ZONE -----X  10201
                                                              534.76KV               MW     MVAR    1 GD              2 XX
 TO SHUNT                             0.0   140.7   140.7
 TO  10183 QIAOK1      22.000  1   -570.0    25.6   570.6  74 1.0500UN              0.00   65.01    1 GD             19 50
 TO  10184 QIAOK2      22.000  1   -570.0    23.0   570.5  74 1.0500UN              0.00   64.99    1 GD             19 50
 TO  10200 LIYUJIA=    500.00  1   -469.1  -135.9   488.4  22                       0.21    0.42    1 GD              2 XX
 TO  10227 QUJIANG=    500.00  1    793.2   -30.5   793.8  35                      11.66  119.96    1 GD              2 XX
 TO  10227 QUJIANG=    500.00  2    815.8   -22.8   816.2  36                      11.18  123.54    1 GD              2 XX

BUS  10202 AOLIYOU=    500.00 CKT     MW     MVAR     MVA  %I 1.0533PU  -32.00  X--- LOSSES ---X X---- AREA -----X X---- ZONE -----X  10202
                                                              526.66KV               MW     MVAR    1 GD              2 XX
 TO  10231 GANGCHE=    500.00  1      0.0     0.0     0.0   0                       0.00    0.01    1 GD              2 XX
 TO  10231 GANGCHE=    500.00  2      0.0     0.0     0.0   0                       0.00    0.01    1 GD              2 XX

BUS  10203 YANGXI=     500.00 CKT     MW     MVAR     MVA  %I 1.0585PU  -38.28  X--- LOSSES ---X X---- AREA -----X X---- ZONE -----X  10203
                                                              529.25KV               MW     MVAR    1 GD              2 XX
 TO  10185 YAX1        20.000  1   -464.0    22.5   464.5  61 1.0500UN              0.00   44.00    1 GD              2 XX
 TO  10229 DIELING=    500.00  1    232.0   -11.2   232.3  10                       0.34    4.33    1 GD              2 XX
 TO  10229 DIELING=    500.00  2    232.0   -11.2   232.3  10                       0.34    4.33    1 GD              2 XX

BUS  10204 HONGHAW=    500.00 CKT     MW     MVAR     MVA  %I 1.0644PU  -38.39  X--- LOSSES ---X X---- AREA -----X X---- ZONE -----X  10204
                                                              532.20KV               MW     MVAR    1 GD              2 XX
 TO  10186 HOHW1       22.000  1   -490.0    66.6   494.5  65 1.0500UN              0.00   48.59    1 GD             19 50
 TO  10187 HOHW2       22.000  1   -490.0    66.6   494.5  65 1.0500UN              0.00   48.59    1 GD             19 50
 TO  10224 MAOHU=      500.00  1    482.1   -65.2   486.5  16                       0.41    6.43    1 GD              2 XX
 TO  10224 MAOHU=      500.00  2    497.9   -68.0   502.6  17                       0.44    6.64    1 GD              2 XX

BUS  10205 HAIMEN=     500.00 CKT     MW     MVAR     MVA  %I 1.0673PU  -33.64  X--- LOSSES ---X X---- AREA -----X X---- ZONE -----X  10205
                                                              533.67KV               MW     MVAR    1 GD              2 XX
 TO  10188 HAIM1       27.000  1   -789.0    23.3   789.3  63 1.0500UN              1.03   79.89    1 GD              2 XX
 TO  10223 SHANTOU=    500.00  1    394.5   -11.6   394.7  11                       0.41    8.78    1 GD              2 XX
 TO  10223 SHANTOU=    500.00  2    394.5   -11.6   394.7  11                       0.41    8.78    1 GD              2 XX
     PTI INTERACTIVE POWER SYSTEM SIMULATOR--PSS/E      MON, NOV 02 2009  22:35
PSS/E LOADFLOW RAW FILE                                                  RATING
CONVERTED FROM BPA FORMAT                                                 SET A

BUS  10206 HESHUYB=    500.00 CKT     MW     MVAR     MVA  %I 1.0615PU  -32.55  X--- LOSSES ---X X---- AREA -----X X---- ZONE -----X  10206
                                                              530.74KV               MW     MVAR    1 GD              2 XX
 TO  10189 HSYB1       20.000  1   -264.6    34.4   266.8  68 1.0500UN              0.44   26.35    1 GD             19 50
 TO  10190 HSYB2       20.000  1   -264.6    34.4   266.8  68 1.0500UN              0.44   26.35    1 GD             19 50
 TO  10225 JIAYING=    500.00  1    529.1   -68.7   533.6  24                       0.50    3.02    1 GD              2 XX

BUS  10207 ZCT=        500.00 CKT     MW     MVAR     MVA  %I 1.0521PU  -47.61  X--- LOSSES ---X X---- AREA -----X X---- ZONE -----X  10207
                                                              526.06KV               MW     MVAR    1 GD              2 XX
 TO  10211 DCSUID=     500.00  2   -791.3   -14.8   791.4  36                       0.57    9.05    1 GD              4 N2
 TO  10220 GUANCHE=    500.00  2    791.3    14.8   791.4  24                       1.70   28.94    1 GD              2 XX

BUS  10208 ZENGCHE=    500.00 CKT     MW     MVAR     MVA  %I 1.0506PU  -46.53  X--- LOSSES ---X X---- AREA -----X X---- ZONE -----X  10208
                                                              525.28KV               MW     MVAR    1 GD              2 XX
 TO  10196 XUNENG2=    500.00  1   -878.4   -62.0   880.6  40                       7.69   61.54    1 GD              2 XX
 TO  10196 XUNENG2=    500.00  2   -821.0   -48.9   822.5  37                       7.94   57.41    1 GD              2 XX
 TO  10211 DCSUID=     500.00  1    491.1  -199.6   530.1  24                       0.25    4.03    1 GD              4 N2
 TO  10220 GUANCHE=    500.00  1   1191.3   -22.3  1191.5  36                       3.86   65.58    1 GD              2 XX
 TO  10233 BEIJIAO=    500.00  1   -875.5   109.8   882.3  34                       4.97   35.53    1 GD              2 XX
 TO  10233 BEIJIAO=    500.00  2   -880.2    91.9   885.0  34                       4.29   35.72    1 GD              2 XX
 TO  10258 ZC1         220.00  1    545.0   -28.0   545.7  69 1.0500UN              0.15   55.78    1 GD              2 XX
 TO  10259 ZC2         220.00  1    613.8    79.6   619.0  79 1.0500UN              0.19   71.76    1 GD              2 XX
 TO  10260 ZC3         220.00  1    613.8    79.6   619.0  79 1.0500UN              0.19   71.76    1 GD              2 XX

BUS  10209 GUANGNA=    500.00 CKT     MW     MVAR     MVA  %I 1.0528PU  -47.71  X--- LOSSES ---X X---- AREA -----X X---- ZONE -----X  10209
                                                              526.38KV               MW     MVAR    1 GD              2 XX
 TO  10193 SHAJIAC=    500.00  1   -450.2   -56.6   453.8  17                       1.10   11.75    1 GD              2 XX
 TO  10194 SHAJIAB=    500.00  1   -431.7   -36.4   433.2  16                       1.68   10.93    1 GD              2 XX
 TO  10215 SHUNDE=     500.00  1   -372.6    86.4   382.5  15                       0.84   10.44    1 GD              2 XX
 TO  10215 SHUNDE=     500.00  2   -367.8    84.0   377.3  14                       0.81   10.31    1 GD              2 XX
 TO  10270 GN1         220.00  1    376.3   -22.1   377.0  36 1.0500UN              0.06   22.79    1 GD              2 XX
 TO  10273 GN3         220.00  1    623.0   -27.6   623.6  59 1.0500UN              0.15   62.13    1 GD              2 XX
 TO  10275 GN4         220.00  1    623.0   -27.6   623.6  59 1.0500UN              0.15   62.13    1 GD              2 XX

BUS  10210 HUADU=      500.00 CKT     MW     MVAR     MVA  %I 1.0542PU  -42.66  X--- LOSSES ---X X---- AREA -----X X---- ZONE -----X  10210
                                                              527.08KV               MW     MVAR    1 GD              2 XX
 TO LOAD-PQ                         846.6     1.2   846.6
 TO SHUNT                             0.0   273.4   273.4
 TO  10212 XIANLS=     500.00  1   -951.2   120.0   958.7  27                       7.64  120.56    1 GD              2 XX
 TO  10212 XIANLS=     500.00  2   -946.3   111.7   952.9  27                       6.70  119.82    1 GD              2 XX
 TO  10216 YANDU=      500.00  1   -177.9  -114.2   211.5   6                       0.29    4.33    1 GD              2 XX
 TO  10216 YANDU=      500.00  2   -179.0  -115.6   213.1   6                       0.27    4.36    1 GD              2 XX
 TO  10222 BOLUO=      500.00  1    252.7  -179.1   309.7   8                       0.80    9.68    1 GD              2 XX
 TO  10222 BOLUO=      500.00  2    254.4  -179.9   311.6   8                       0.81    9.75    1 GD              2 XX
 TO  10227 QUJIANG=    500.00  1   -522.2    -4.4   522.2  20                       2.51   39.41    1 GD              2 XX
 TO  10227 QUJIANG=    500.00  2   -521.4    -2.6   521.5  20                       2.76   39.37    1 GD              2 XX
 TO  10233 BEIJIAO=    500.00  1    972.2    45.0   973.3  37                       1.71   26.47    1 GD              2 XX
 TO  10233 BEIJIAO=    500.00  2    972.2    44.7   973.3  37                       1.71   26.47    1 GD              2 XX
     PTI INTERACTIVE POWER SYSTEM SIMULATOR--PSS/E      MON, NOV 02 2009  22:35
PSS/E LOADFLOW RAW FILE                                                  RATING
CONVERTED FROM BPA FORMAT                                                 SET A

BUS  10211 DCSUID=     500.00 CKT     MW     MVAR     MVA  %I 1.0530PU  -46.95  X--- LOSSES ---X X---- AREA -----X X---- ZONE -----X  10211
                                                              526.52KV               MW     MVAR    1 GD              4 N2
 TO  10013 GD01-HLZ    525.00  1      0.0     0.0     0.0     1.0000LK              0.00    0.00    1 GD              4 N2
 TO  10013 GD01-HLZ    525.00  2      0.0     0.0     0.0     1.0000LK              0.00    0.00    1 GD              4 N2
 TO  10013 GD01-HLZ    525.00  3      0.0     0.0     0.0     1.0000LK              0.00    0.00    1 GD              4 N2
 TO  10207 ZCT=        500.00  2    791.8     6.7   791.9  36                       0.57    9.05    1 GD              2 XX
 TO  10208 ZENGCHE=    500.00  1   -490.9   186.6   525.1  24                       0.25    4.03    1 GD              2 XX
 TO  10219 HENGLI=     500.00  1   -151.0   -95.1   178.4   8                       0.12    1.33    1 GD              2 XX
 TO  10219 HENGLI=     500.00  2   -150.0   -98.2   179.2   8                       0.10    1.33    1 GD              2 XX

BUS  10212 XIANLS=     500.00 CKT     MW     MVAR     MVA  %I 1.0439PU  -35.52  X--- LOSSES ---X X---- AREA -----X X---- ZONE -----X  10212
                                                              521.93KV               MW     MVAR    1 GD              2 XX
 TO SHUNT                             0.0   215.7   215.7
 TO  10016 XIANLS50    525.00  1  -2217.1   288.2  2235.8     1.0000UN              0.00    9.18    1 GD              4 N2
 TO  10210 HUADU=      500.00  1    958.8  -151.8   970.7  28                       7.64  120.56    1 GD              2 XX
 TO  10210 HUADU=      500.00  2    953.1  -144.2   963.9  28                       6.70  119.82    1 GD              2 XX
 TO  10334 XLS2        220.00  1    305.3  -207.9   369.4  47 1.0500UN              0.21   29.97    1 GD              2 XX

BUS  10213 LUODONG=    500.00 CKT     MW     MVAR     MVA  %I 1.0432PU  -43.30  X--- LOSSES ---X X---- AREA -----X X---- ZONE -----X  10213
                                                              521.60KV               MW     MVAR    1 GD              2 XX
 TO LOAD-PQ                        2511.0   130.6  2514.4
 TO  10014 LUODON50    525.00  1  -3438.4   739.9  3517.2     1.0000UN              0.00   22.73    1 GD              4 N2
 TO  10214 XIJIANG=    500.00  1    181.3  -372.3   414.1  16                       0.59    3.41    1 GD              2 XX
 TO  10233 BEIJIAO=    500.00  1    380.1  -248.3   454.0  17                       0.90    7.75    1 GD              2 XX
 TO  10233 BEIJIAO=    500.00  2    366.1  -250.0   443.3  20                       1.03    7.54    1 GD              2 XX

BUS  10214 XIJIANG=    500.00 CKT     MW     MVAR     MVA  %I 1.0504PU  -43.59  X--- LOSSES ---X X---- AREA -----X X---- ZONE -----X  10214
                                                              525.21KV               MW     MVAR    1 GD              2 XX
 TO LOAD-PQ                        1050.0   -19.2  1050.2
 TO  10213 LUODONG=    500.00  1   -180.7   348.2   392.2  15                       0.59    3.41    1 GD              2 XX
 TO  10216 YANDU=      500.00  1   -905.4  -154.2   918.5  24                       3.03   37.13    1 GD              2 XX
 TO  10216 YANDU=      500.00  2   -904.0  -172.7   920.3  24                       2.28   37.24    1 GD              2 XX
 TO  10228 JIANGME=    500.00  1    411.4   -21.9   412.0  16                       1.07    9.05    1 GD              2 XX
 TO  10228 JIANGME=    500.00  2    528.7    19.9   529.0  20                       0.51   11.75    1 GD              2 XX

BUS  10215 SHUNDE=     500.00 CKT     MW     MVAR     MVA  %I 1.0464PU  -46.22  X--- LOSSES ---X X---- AREA -----X X---- ZONE -----X  10215
                                                              523.19KV               MW     MVAR    1 GD              2 XX
 TO  10209 GUANGNA=    500.00  1    373.4  -151.7   403.0  15                       0.84   10.44    1 GD              2 XX
 TO  10209 GUANGNA=    500.00  2    368.6  -150.2   398.1  15                       0.81   10.31    1 GD              2 XX
 TO  10228 JIANGME=    500.00  1   -724.2    18.7   724.5  28                       1.44   17.29    1 GD              2 XX
 TO  10228 JIANGME=    500.00  2   -724.2    18.2   724.5  28                       1.44   17.29    1 GD              2 XX
 TO  10232 XIANGSH=    500.00  1   -126.7   131.6   182.7   7                       0.10    0.88    1 GD              2 XX
 TO  10232 XIANGSH=    500.00  2   -126.7   131.6   182.7   7                       0.10    0.88    1 GD              2 XX
 TO  10292 SD2         220.00  1    479.5     0.9   479.5  46 1.0500UN              0.09   42.35    1 GD              2 XX
 TO  10293 SD3         220.00  1    480.3     0.9   480.3  46 1.0500UN              0.09   42.42    1 GD              2 XX
     PTI INTERACTIVE POWER SYSTEM SIMULATOR--PSS/E      MON, NOV 02 2009  22:35
PSS/E LOADFLOW RAW FILE                                                  RATING
CONVERTED FROM BPA FORMAT                                                 SET A

BUS  10216 YANDU=      500.00 CKT     MW     MVAR     MVA  %I 1.0607PU  -41.34  X--- LOSSES ---X X---- AREA -----X X---- ZONE -----X  10216
                                                              530.33KV               MW     MVAR    1 GD              2 XX
 TO  10005 DCZQ=       500.00  1  -1410.0  -205.2  1424.8  27                       0.00    3.61    1 GD              4 N2
 TO  10005 DCZQ=       500.00  2  -1410.0  -205.2  1424.8  27                       0.00    3.61    1 GD              4 N2
 TO  10210 HUADU=      500.00  1    178.2   -45.8   184.0   5                       0.29    4.33    1 GD              2 XX
 TO  10210 HUADU=      500.00  2    179.3   -44.4   184.7   5                       0.27    4.36    1 GD              2 XX
 TO  10214 XIJIANG=    500.00  1    908.5   138.3   918.9  24                       3.03   37.13    1 GD              2 XX
 TO  10214 XIJIANG=    500.00  2    906.2   157.0   919.7  24                       2.28   37.24    1 GD              2 XX
 TO  10229 DIELING=    500.00  1   -248.7    21.2   249.6  11                       0.71    9.16    1 GD              2 XX
 TO  10229 DIELING=    500.00  2   -248.7    21.2   249.6  11                       0.71    9.16    1 GD              2 XX
 TO  10366 YD2         220.00  1    572.6    81.4   578.3  73 1.0500UN              0.36   64.70    1 GD              2 XX
 TO  10367 YD3         220.00  1    572.6    81.4   578.3  73 1.0500UN              0.36   64.70    1 GD              2 XX

BUS  10217 DGT=        500.00 CKT     MW     MVAR     MVA  %I 1.0590PU  -45.95  X--- LOSSES ---X X---- AREA -----X X---- ZONE -----X  10217
                                                              529.52KV               MW     MVAR    1 GD              2 XX
 TO  10219 HENGLI=     500.00  2    621.1    31.5   621.9  19                       0.69    6.56    1 GD              2 XX
 TO  10221 HUIZHOU=    500.00  2   -621.1   -31.5   621.9  29                       1.72   16.85    1 GD              2 XX

BUS  10218 DONGGUA=    500.00 CKT     MW     MVAR     MVA  %I 1.0611PU  -46.88  X--- LOSSES ---X X---- AREA -----X X---- ZONE -----X  10218
                                                              530.57KV               MW     MVAR    1 GD              2 XX
 TO LOAD-PQ                        1856.0   -65.7  1857.2
 TO  10197 HZXUNEN=    500.00  1   -478.1   -65.2   482.5  16                       0.61   13.24    1 GD              2 XX
 TO  10197 HZXUNEN=    500.00  2   -478.1   -65.2   482.5  16                       0.61   13.24    1 GD              2 XX
 TO  10219 HENGLI=     500.00  1   -327.0   228.8   399.1  12                       0.15    2.76    1 GD              2 XX
 TO  10221 HUIZHOU=    500.00  1   -808.7    82.3   812.9  38                       5.33   34.93    1 GD              2 XX
 TO  10554 KUNPENG=    500.00  1    117.9   -57.5   131.2   5                       0.04    0.41    1 GD              2 XX
 TO  10554 KUNPENG=    500.00  2    117.9   -57.5   131.2   5                       0.04    0.41    1 GD              2 XX

BUS  10219 HENGLI=     500.00 CKT     MW     MVAR     MVA  %I 1.0572PU  -46.55  X--- LOSSES ---X X---- AREA -----X X---- ZONE -----X  10219
                                                              528.60KV               MW     MVAR    1 GD              2 XX
 TO LOAD-PQ                        1974.0   523.2  2042.2
 TO  10211 DCSUID=     500.00  1    151.1    39.3   156.2   7                       0.12    1.33    1 GD              4 N2
 TO  10211 DCSUID=     500.00  2    150.1    42.0   155.8   7                       0.10    1.33    1 GD              4 N2
 TO  10217 DGT=        500.00  2   -620.4   -44.3   621.9  19                       0.69    6.56    1 GD              2 XX
 TO  10218 DONGGUA=    500.00  1    327.1  -245.4   408.9  12                       0.15    2.76    1 GD              2 XX
 TO  10222 BOLUO=      500.00  1   -991.0  -157.4  1003.4  30                       2.69   34.91    1 GD              2 XX
 TO  10222 BOLUO=      500.00  2   -991.0  -157.4  1003.4  30                       2.69   34.91    1 GD              2 XX

BUS  10220 GUANCHE=    500.00 CKT     MW     MVAR     MVA  %I 1.0484PU  -49.70  X--- LOSSES ---X X---- AREA -----X X---- ZONE -----X  10220
                                                              524.21KV               MW     MVAR    1 GD              2 XX
 TO LOAD-PQ                        2699.0   158.0  2703.6
 TO  10207 ZCT=        500.00  2   -789.6   -44.4   790.8  24                       1.70   28.94    1 GD              2 XX
 TO  10208 ZENGCHE=    500.00  1  -1187.4    29.6  1187.8  36                       3.86   65.58    1 GD              2 XX
 TO  10560 BAOAN=      500.00  1   -722.0  -143.2   736.0  28                       1.46   19.51    1 GD              2 XX

BUS  10221 HUIZHOU=    500.00 CKT     MW     MVAR     MVA  %I 1.0627PU  -44.40  X--- LOSSES ---X X---- AREA -----X X---- ZONE -----X  10221
                                                              531.37KV               MW     MVAR    1 GD              2 XX
 TO  10217 DGT=        500.00  2    622.8     1.5   622.8  29                       1.72   16.85    1 GD              2 XX
 TO  10218 DONGGUA=    500.00  1    814.1  -107.5   821.1  39                       5.33   34.93    1 GD              2 XX
 TO  10224 MAOHU=      500.00  1   -828.1    21.8   828.3  31                       6.14   76.07    1 GD              2 XX
 TO  10224 MAOHU=      500.00  2   -834.7    22.8   835.0  31                       6.23   76.69    1 GD              2 XX
 TO  10245 HZ1         220.00  1    256.8     1.5   256.8  32 1.0500UN              0.07   12.90    1 GD              2 XX
 TO  10246 HZ2         220.00  1    256.8     1.5   256.8  32 1.0500UN              0.07   12.90    1 GD              2 XX
 TO  10249 HZ3         220.00  1    256.8     1.5   256.8  32 1.0500UN              0.07   12.90    1 GD              2 XX
 TO  20191 DAYAWAN=    500.00  1   -544.4    56.8   547.3  25                       1.62   17.24    2 HK             18 HK
     PTI INTERACTIVE POWER SYSTEM SIMULATOR--PSS/E      MON, NOV 02 2009  22:35
PSS/E LOADFLOW RAW FILE                                                  RATING
CONVERTED FROM BPA FORMAT                                                 SET A

BUS  10222 BOLUO=      500.00 CKT     MW     MVAR     MVA  %I 1.0656PU  -44.60  X--- LOSSES ---X X---- AREA -----X X---- ZONE -----X  10222
                                                              532.81KV               MW     MVAR    1 GD              2 XX
 TO  10011 DCHZ=       500.00  1  -1587.2   -78.8  1589.2  30                       2.22    6.67    1 GD              4 N2
 TO  10011 DCHZ=       500.00  2  -1209.2  -154.1  1219.0  23                       1.31    5.23    1 GD              4 N2
 TO  10197 HZXUNEN=    500.00  1    770.7   -29.8   771.3  29                       1.05    9.42    1 GD              2 XX
 TO  10210 HUADU=      500.00  1   -251.9    27.2   253.4   7                       0.80    9.68    1 GD              2 XX
 TO  10210 HUADU=      500.00  2   -253.6    28.1   255.1   7                       0.81    9.75    1 GD              2 XX
 TO  10219 HENGLI=     500.00  1    993.7   148.6  1004.7  30                       2.69   34.91    1 GD              2 XX
 TO  10219 HENGLI=     500.00  2    993.7   148.6  1004.7  30                       2.69   34.91    1 GD              2 XX
 TO  10410 BL2         220.00  1    272.0   -44.9   275.6  34 1.0500UN              0.08   14.93    1 GD              2 XX
 TO  10411 BL3         220.00  1    272.0   -44.9   275.6  34 1.0500UN              0.08   14.93    1 GD              2 XX

BUS  10223 SHANTOU=    500.00 CKT     MW     MVAR     MVA  %I 1.0649PU  -34.91  X--- LOSSES ---X X---- AREA -----X X---- ZONE -----X  10223
                                                              532.45KV               MW     MVAR    1 GD              2 XX
 TO  10205 HAIMEN=     500.00  1   -394.1   -55.6   398.0  11                       0.41    8.78    1 GD              2 XX
 TO  10205 HAIMEN=     500.00  2   -394.1   -55.6   398.0  11                       0.41    8.78    1 GD              2 XX
 TO  10226 RONGJIA=    500.00  1    224.2   -29.9   226.2   8                       0.22    2.04    1 GD              2 XX
 TO  10226 RONGJIA=    500.00  2    224.7   -25.1   226.1   8                       0.18    2.05    1 GD              2 XX
 TO  10377 ST1         220.00  1    110.5    54.1   123.1  15 1.0500UN              0.02    2.95    1 GD              2 XX
 TO  10378 ST2         220.00  1    117.9    57.8   131.3  16 1.0500UN              0.01    3.14    1 GD              2 XX
 TO  10379 ST3         220.00  1    110.8    54.3   123.3  15 1.0500UN              0.02    2.95    1 GD              2 XX

BUS  10224 MAOHU=      500.00 CKT     MW     MVAR     MVA  %I 1.0651PU  -39.15  X--- LOSSES ---X X---- AREA -----X X---- ZONE -----X  10224
                                                              532.54KV               MW     MVAR    1 GD              2 XX
 TO LOAD-PQ                         327.8    76.0   336.5
 TO  10204 HONGHAW=    500.00  1   -481.6    42.8   483.5  16                       0.41    6.43    1 GD              2 XX
 TO  10204 HONGHAW=    500.00  2   -497.5    45.8   499.6  16                       0.44    6.64    1 GD              2 XX
 TO  10221 HUIZHOU=    500.00  1    834.2   -72.5   837.3  31                       6.14   76.07    1 GD              2 XX
 TO  10221 HUIZHOU=    500.00  2    840.9   -73.4   844.1  32                       6.23   76.69    1 GD              2 XX
 TO  10226 RONGJIA=    500.00  1   -536.0    -6.2   536.0  20                       2.57   34.93    1 GD              2 XX
 TO  10226 RONGJIA=    500.00  2   -487.8   -12.5   488.0  18                       2.78   31.81    1 GD              2 XX

BUS  10225 JIAYING=    500.00 CKT     MW     MVAR     MVA  %I 1.0612PU  -32.88  X--- LOSSES ---X X---- AREA -----X X---- ZONE -----X  10225
                                                              530.60KV               MW     MVAR    1 GD              2 XX
 TO SHUNT                             0.0   223.0   223.0
 TO  10206 HESHUYB=    500.00  1   -528.6    59.1   531.9  24                       0.50    3.02    1 GD              2 XX
 TO  10226 RONGJIA=    500.00  1    380.6  -117.0   398.2  15                       1.44   17.11    1 GD              2 XX
 TO  10226 RONGJIA=    500.00  2    380.0  -119.9   398.4  15                       1.57   17.09    1 GD              2 XX
 TO  10403 JY1         220.00  1   -232.0   -45.2   236.3  22 1.0500UN              0.02    8.97    1 GD              2 XX

BUS  10226 RONGJIA=    500.00 CKT     MW     MVAR     MVA  %I 1.0642PU  -35.43  X--- LOSSES ---X X---- AREA -----X X---- ZONE -----X  10226
                                                              532.08KV               MW     MVAR    1 GD              2 XX
 TO LOAD-PQ                         177.0   117.1   212.2
 TO SHUNT                             0.0   139.3   139.3
 TO  10223 SHANTOU=    500.00  1   -224.0   -16.2   224.6   8                       0.22    2.04    1 GD              2 XX
 TO  10223 SHANTOU=    500.00  2   -224.6   -21.0   225.5   8                       0.18    2.05    1 GD              2 XX
 TO  10224 MAOHU=      500.00  1    538.5   -99.5   547.6  21                       2.57   34.93    1 GD              2 XX
 TO  10224 MAOHU=      500.00  2    490.6  -111.0   503.0  19                       2.78   31.81    1 GD              2 XX
 TO  10225 JIAYING=    500.00  1   -379.2    -5.8   379.2  14                       1.44   17.11    1 GD              2 XX
 TO  10225 JIAYING=    500.00  2   -378.4    -2.9   378.4  14                       1.57   17.09    1 GD              2 XX
     PTI INTERACTIVE POWER SYSTEM SIMULATOR--PSS/E      MON, NOV 02 2009  22:35
PSS/E LOADFLOW RAW FILE                                                  RATING
CONVERTED FROM BPA FORMAT                                                 SET A

BUS  10227 QUJIANG=    500.00 CKT     MW     MVAR     MVA  %I 1.0503PU  -38.37  X--- LOSSES ---X X---- AREA -----X X---- ZONE -----X  10227
                                                              525.13KV               MW     MVAR    1 GD              2 XX
 TO SHUNT                             0.0   327.6   327.6
 TO  10201 QIAOKOU=    500.00  1   -781.6   -62.5   784.1  36                      11.66  119.96    1 GD              2 XX
 TO  10201 QIAOKOU=    500.00  2   -804.7   -66.7   807.4  37                      11.18  123.54    1 GD              2 XX
 TO  10210 HUADU=      500.00  1    524.7  -122.6   538.8  21                       2.51   39.41    1 GD              2 XX
 TO  10210 HUADU=      500.00  2    524.2  -127.3   539.4  21                       2.76   39.37    1 GD              2 XX
 TO  10326 QJ1         220.00  1    271.7    26.0   272.9  35 1.0500UN              0.03   13.68    1 GD              2 XX
 TO  10327 QJ2         220.00  1    265.7    25.5   266.9  34 1.0500UN              0.07   13.38    1 GD              2 XX

BUS  10228 JIANGME=    500.00 CKT     MW     MVAR     MVA  %I 1.0475PU  -44.85  X--- LOSSES ---X X---- AREA -----X X---- ZONE -----X  10228
                                                              523.76KV               MW     MVAR    1 GD              2 XX
 TO  10214 XIJIANG=    500.00  1   -410.3   -28.0   411.3  16                       1.07    9.05    1 GD              2 XX
 TO  10214 XIJIANG=    500.00  2   -528.2   -67.1   532.4  20                       0.51   11.75    1 GD              2 XX
 TO  10215 SHUNDE=     500.00  1    725.7   -35.9   726.6  28                       1.44   17.29    1 GD              2 XX
 TO  10215 SHUNDE=     500.00  2    725.7   -36.4   726.6  28                       1.44   17.29    1 GD              2 XX
 TO  10229 DIELING=    500.00  1   -650.7   -45.6   652.3  25                       4.65   63.10    1 GD              2 XX
 TO  10229 DIELING=    500.00  2   -650.7   -45.6   652.3  25                       4.65   63.10    1 GD              2 XX
 TO  10318 JM1         220.00  1    394.3   129.3   414.9  53 1.0000UN              0.08   32.43    1 GD              2 XX
 TO  10319 JM2         220.00  1    394.3   129.3   414.9  53 1.0000UN              0.08   32.43    1 GD              2 XX

BUS  10229 DIELING=    500.00 CKT     MW     MVAR     MVA  %I 1.0542PU  -39.32  X--- LOSSES ---X X---- AREA -----X X---- ZONE -----X  10229
                                                              527.10KV               MW     MVAR    1 GD              2 XX
 TO SHUNT                             0.0   220.0   220.0
 TO  10203 YANGXI=     500.00  1   -231.7   -77.1   244.2  11                       0.34    4.33    1 GD              2 XX
 TO  10203 YANGXI=     500.00  2   -231.7   -77.1   244.2  11                       0.34    4.33    1 GD              2 XX
 TO  10216 YANDU=      500.00  1    249.4  -104.9   270.6  12                       0.71    9.16    1 GD              2 XX
 TO  10216 YANDU=      500.00  2    249.4  -104.9   270.6  12                       0.71    9.16    1 GD              2 XX
 TO  10228 JIANGME=    500.00  1    655.4   -56.5   657.8  25                       4.65   63.10    1 GD              2 XX
 TO  10228 JIANGME=    500.00  2    655.4   -56.5   657.8  25                       4.65   63.10    1 GD              2 XX
 TO  10230 MAOMING=    500.00  1   -876.2   104.4   882.4  33                       8.68  117.86    1 GD              2 XX
...